*SPEF "ieee 1481-1999"
*DESIGN "alu8"
*DATE "00:21:29 Saturday November 15, 2025"
*VENDOR "The OpenROAD Project"
*PROGRAM "OpenROAD"
*VERSION "edf00dff99f6c40d67a30c0e22a8191c5d2ed9d6"
*DESIGN_FLOW "NAME_SCOPE LOCAL" "PIN_CAP NONE"
*DIVIDER /
*DELIMITER :
*BUS_DELIMITER []
*T_UNIT 1 NS
*C_UNIT 1 PF
*R_UNIT 1 OHM
*L_UNIT 1 HENRY

*NAME_MAP
*3 a[0]
*4 a[1]
*5 a[2]
*6 a[3]
*7 a[4]
*8 a[5]
*9 a[6]
*10 a[7]
*11 b[0]
*12 b[1]
*13 b[2]
*14 b[3]
*15 b[4]
*16 b[5]
*17 b[6]
*18 b[7]
*19 carry_out
*20 negative
*21 op[0]
*22 op[1]
*23 op[2]
*24 op[3]
*25 overflow
*26 y[0]
*27 y[1]
*28 y[2]
*29 y[3]
*30 y[4]
*31 y[5]
*32 y[6]
*33 y[7]
*34 zero
*35 _000_
*36 _001_
*37 _002_
*38 _003_
*39 _004_
*40 _005_
*41 _006_
*42 _007_
*43 _008_
*44 _009_
*45 _010_
*46 _011_
*47 _012_
*48 _013_
*49 _014_
*50 _015_
*51 _016_
*52 _017_
*53 _018_
*54 _019_
*55 _020_
*56 _021_
*57 _022_
*58 _023_
*59 _024_
*60 _025_
*61 _026_
*62 _027_
*63 _028_
*64 _029_
*65 _030_
*66 _031_
*67 _032_
*68 _033_
*69 _034_
*70 _035_
*71 _036_
*72 _037_
*73 _038_
*74 _039_
*75 _040_
*76 _041_
*77 _042_
*78 _043_
*79 _044_
*80 _045_
*81 _046_
*82 _047_
*83 _048_
*84 _049_
*85 _050_
*86 _051_
*87 _052_
*88 _053_
*89 _054_
*90 _055_
*91 _056_
*92 _057_
*93 _058_
*94 _059_
*95 _060_
*96 _061_
*97 _062_
*98 _063_
*99 _064_
*100 _065_
*101 _066_
*102 _067_
*103 _068_
*104 _069_
*105 _070_
*106 _071_
*107 _072_
*108 _073_
*109 _074_
*110 _075_
*111 _076_
*112 _077_
*113 _078_
*114 _079_
*115 _080_
*116 _081_
*117 _082_
*118 _083_
*119 _084_
*120 _085_
*121 _086_
*122 _087_
*123 _088_
*124 _089_
*125 _090_
*126 _091_
*127 _092_
*128 _093_
*129 _094_
*130 _095_
*131 _096_
*132 _097_
*133 _098_
*134 _099_
*135 _100_
*136 _101_
*137 _102_
*138 _103_
*139 _104_
*140 _105_
*141 _106_
*142 _107_
*143 _108_
*144 _109_
*145 _110_
*146 _111_
*147 _112_
*148 _113_
*149 _114_
*150 _115_
*151 _116_
*152 _117_
*153 _118_
*154 _119_
*155 _120_
*156 _121_
*157 _122_
*158 _123_
*159 _124_
*160 _125_
*161 _126_
*162 _127_
*163 _128_
*164 _129_
*165 _130_
*166 _131_
*167 _132_
*168 _133_
*169 _134_
*170 _135_
*171 _136_
*172 _137_
*173 _138_
*174 _139_
*175 _140_
*176 _141_
*177 _142_
*178 _143_
*179 _144_
*180 _145_
*181 _146_
*182 _147_
*183 _148_
*184 _149_
*185 _150_
*186 _151_
*187 _152_
*188 _153_
*189 _154_
*190 _155_
*191 _156_
*192 _157_
*193 _158_
*194 _159_
*195 _160_
*196 _161_
*197 _162_
*198 _163_
*199 _164_
*200 _165_
*201 _166_
*202 _167_
*203 _168_
*204 _169_
*205 _170_
*206 _171_
*207 _172_
*208 _173_
*209 _174_
*210 _175_
*211 _176_
*212 _177_
*213 net1
*214 net10
*215 net11
*216 net12
*217 net13
*218 net14
*219 net15
*220 net16
*221 net17
*222 net18
*223 net19
*224 net2
*225 net20
*226 net21
*227 net22
*228 net23
*229 net24
*230 net25
*231 net26
*232 net27
*233 net28
*234 net29
*235 net3
*236 net30
*237 net31
*238 net32
*239 net33
*240 net34
*241 net35
*242 net36
*243 net37
*244 net38
*245 net39
*246 net4
*247 net40
*248 net41
*249 net42
*250 net43
*251 net44
*252 net45
*253 net46
*254 net47
*255 net5
*256 net6
*257 net7
*258 net8
*259 net9
*260 FILLER_0_109
*261 FILLER_0_113
*262 FILLER_0_125
*263 FILLER_0_15
*264 FILLER_0_27
*265 FILLER_0_3
*266 FILLER_0_50
*267 FILLER_0_61
*268 FILLER_0_83
*269 FILLER_0_85
*270 FILLER_0_97
*271 FILLER_10_102
*272 FILLER_10_124
*273 FILLER_10_24
*274 FILLER_10_3
*275 FILLER_10_36
*276 FILLER_10_48
*277 FILLER_10_60
*278 FILLER_10_7
*279 FILLER_10_72
*280 FILLER_10_78
*281 FILLER_10_85
*282 FILLER_11_102
*283 FILLER_11_113
*284 FILLER_11_27
*285 FILLER_11_44
*286 FILLER_11_55
*287 FILLER_11_60
*288 FILLER_11_68
*289 FILLER_11_85
*290 FILLER_11_93
*291 FILLER_11_97
*292 FILLER_12_114
*293 FILLER_12_26
*294 FILLER_12_29
*295 FILLER_12_41
*296 FILLER_12_63
*297 FILLER_12_7
*298 FILLER_12_74
*299 FILLER_12_80
*300 FILLER_13_106
*301 FILLER_13_113
*302 FILLER_13_120
*303 FILLER_13_15
*304 FILLER_13_3
*305 FILLER_13_30
*306 FILLER_13_34
*307 FILLER_13_55
*308 FILLER_13_64
*309 FILLER_13_77
*310 FILLER_13_83
*311 FILLER_13_89
*312 FILLER_13_97
*313 FILLER_14_118
*314 FILLER_14_122
*315 FILLER_14_27
*316 FILLER_14_29
*317 FILLER_14_41
*318 FILLER_14_56
*319 FILLER_14_68
*320 FILLER_14_74
*321 FILLER_14_81
*322 FILLER_14_85
*323 FILLER_15_123
*324 FILLER_15_32
*325 FILLER_15_38
*326 FILLER_15_47
*327 FILLER_15_55
*328 FILLER_15_57
*329 FILLER_15_69
*330 FILLER_15_75
*331 FILLER_15_79
*332 FILLER_15_99
*333 FILLER_16_102
*334 FILLER_16_110
*335 FILLER_16_117
*336 FILLER_16_121
*337 FILLER_16_27
*338 FILLER_16_29
*339 FILLER_16_41
*340 FILLER_16_53
*341 FILLER_16_65
*342 FILLER_16_7
*343 FILLER_16_82
*344 FILLER_16_90
*345 FILLER_17_100
*346 FILLER_17_106
*347 FILLER_17_120
*348 FILLER_17_15
*349 FILLER_17_28
*350 FILLER_17_3
*351 FILLER_17_36
*352 FILLER_17_44
*353 FILLER_18_11
*354 FILLER_18_120
*355 FILLER_18_26
*356 FILLER_18_29
*357 FILLER_18_3
*358 FILLER_18_77
*359 FILLER_18_85
*360 FILLER_18_96
*361 FILLER_19_107
*362 FILLER_19_111
*363 FILLER_19_113
*364 FILLER_19_125
*365 FILLER_19_15
*366 FILLER_19_28
*367 FILLER_19_3
*368 FILLER_19_36
*369 FILLER_19_47
*370 FILLER_19_54
*371 FILLER_19_60
*372 FILLER_19_64
*373 FILLER_19_74
*374 FILLER_19_89
*375 FILLER_19_95
*376 FILLER_1_108
*377 FILLER_1_113
*378 FILLER_1_125
*379 FILLER_1_15
*380 FILLER_1_28
*381 FILLER_1_3
*382 FILLER_1_54
*383 FILLER_1_69
*384 FILLER_1_96
*385 FILLER_20_100
*386 FILLER_20_105
*387 FILLER_20_111
*388 FILLER_20_113
*389 FILLER_20_125
*390 FILLER_20_15
*391 FILLER_20_27
*392 FILLER_20_29
*393 FILLER_20_3
*394 FILLER_20_41
*395 FILLER_20_48
*396 FILLER_20_57
*397 FILLER_20_63
*398 FILLER_20_70
*399 FILLER_20_77
*400 FILLER_20_83
*401 FILLER_20_85
*402 FILLER_2_101
*403 FILLER_2_113
*404 FILLER_2_121
*405 FILLER_2_15
*406 FILLER_2_29
*407 FILLER_2_3
*408 FILLER_2_63
*409 FILLER_2_89
*410 FILLER_3_101
*411 FILLER_3_109
*412 FILLER_3_113
*413 FILLER_3_125
*414 FILLER_3_22
*415 FILLER_3_3
*416 FILLER_3_54
*417 FILLER_3_66
*418 FILLER_3_72
*419 FILLER_3_76
*420 FILLER_3_89
*421 FILLER_4_103
*422 FILLER_4_115
*423 FILLER_4_29
*424 FILLER_4_3
*425 FILLER_4_62
*426 FILLER_4_66
*427 FILLER_4_75
*428 FILLER_4_83
*429 FILLER_4_9
*430 FILLER_4_91
*431 FILLER_5_105
*432 FILLER_5_11
*433 FILLER_5_111
*434 FILLER_5_113
*435 FILLER_5_125
*436 FILLER_5_18
*437 FILLER_5_26
*438 FILLER_5_3
*439 FILLER_5_31
*440 FILLER_5_35
*441 FILLER_5_55
*442 FILLER_5_57
*443 FILLER_5_69
*444 FILLER_5_77
*445 FILLER_5_93
*446 FILLER_6_109
*447 FILLER_6_121
*448 FILLER_6_125
*449 FILLER_6_14
*450 FILLER_6_36
*451 FILLER_6_44
*452 FILLER_6_48
*453 FILLER_6_6
*454 FILLER_6_69
*455 FILLER_6_81
*456 FILLER_6_85
*457 FILLER_6_97
*458 FILLER_7_106
*459 FILLER_7_122
*460 FILLER_7_39
*461 FILLER_7_43
*462 FILLER_7_6
*463 FILLER_7_74
*464 FILLER_7_94
*465 FILLER_8_100
*466 FILLER_8_18
*467 FILLER_8_26
*468 FILLER_8_35
*469 FILLER_9_10
*470 FILLER_9_124
*471 FILLER_9_27
*472 FILLER_9_39
*473 FILLER_9_54
*474 FILLER_9_60
*475 FILLER_9_89
*476 FILLER_9_99
*477 PHY_EDGE_ROW_0_Left_21
*478 PHY_EDGE_ROW_0_Right_0
*479 PHY_EDGE_ROW_10_Left_31
*480 PHY_EDGE_ROW_10_Right_10
*481 PHY_EDGE_ROW_11_Left_32
*482 PHY_EDGE_ROW_11_Right_11
*483 PHY_EDGE_ROW_12_Left_33
*484 PHY_EDGE_ROW_12_Right_12
*485 PHY_EDGE_ROW_13_Left_34
*486 PHY_EDGE_ROW_13_Right_13
*487 PHY_EDGE_ROW_14_Left_35
*488 PHY_EDGE_ROW_14_Right_14
*489 PHY_EDGE_ROW_15_Left_36
*490 PHY_EDGE_ROW_15_Right_15
*491 PHY_EDGE_ROW_16_Left_37
*492 PHY_EDGE_ROW_16_Right_16
*493 PHY_EDGE_ROW_17_Left_38
*494 PHY_EDGE_ROW_17_Right_17
*495 PHY_EDGE_ROW_18_Left_39
*496 PHY_EDGE_ROW_18_Right_18
*497 PHY_EDGE_ROW_19_Left_40
*498 PHY_EDGE_ROW_19_Right_19
*499 PHY_EDGE_ROW_1_Left_22
*500 PHY_EDGE_ROW_1_Right_1
*501 PHY_EDGE_ROW_20_Left_41
*502 PHY_EDGE_ROW_20_Right_20
*503 PHY_EDGE_ROW_2_Left_23
*504 PHY_EDGE_ROW_2_Right_2
*505 PHY_EDGE_ROW_3_Left_24
*506 PHY_EDGE_ROW_3_Right_3
*507 PHY_EDGE_ROW_4_Left_25
*508 PHY_EDGE_ROW_4_Right_4
*509 PHY_EDGE_ROW_5_Left_26
*510 PHY_EDGE_ROW_5_Right_5
*511 PHY_EDGE_ROW_6_Left_27
*512 PHY_EDGE_ROW_6_Right_6
*513 PHY_EDGE_ROW_7_Left_28
*514 PHY_EDGE_ROW_7_Right_7
*515 PHY_EDGE_ROW_8_Left_29
*516 PHY_EDGE_ROW_8_Right_8
*517 PHY_EDGE_ROW_9_Left_30
*518 PHY_EDGE_ROW_9_Right_9
*519 TAP_TAPCELL_ROW_0_42
*520 TAP_TAPCELL_ROW_0_43
*521 TAP_TAPCELL_ROW_0_44
*522 TAP_TAPCELL_ROW_0_45
*523 TAP_TAPCELL_ROW_10_64
*524 TAP_TAPCELL_ROW_10_65
*525 TAP_TAPCELL_ROW_11_66
*526 TAP_TAPCELL_ROW_11_67
*527 TAP_TAPCELL_ROW_12_68
*528 TAP_TAPCELL_ROW_12_69
*529 TAP_TAPCELL_ROW_13_70
*530 TAP_TAPCELL_ROW_13_71
*531 TAP_TAPCELL_ROW_14_72
*532 TAP_TAPCELL_ROW_14_73
*533 TAP_TAPCELL_ROW_15_74
*534 TAP_TAPCELL_ROW_15_75
*535 TAP_TAPCELL_ROW_16_76
*536 TAP_TAPCELL_ROW_16_77
*537 TAP_TAPCELL_ROW_17_78
*538 TAP_TAPCELL_ROW_17_79
*539 TAP_TAPCELL_ROW_18_80
*540 TAP_TAPCELL_ROW_18_81
*541 TAP_TAPCELL_ROW_19_82
*542 TAP_TAPCELL_ROW_19_83
*543 TAP_TAPCELL_ROW_1_46
*544 TAP_TAPCELL_ROW_1_47
*545 TAP_TAPCELL_ROW_20_84
*546 TAP_TAPCELL_ROW_20_85
*547 TAP_TAPCELL_ROW_20_86
*548 TAP_TAPCELL_ROW_20_87
*549 TAP_TAPCELL_ROW_2_48
*550 TAP_TAPCELL_ROW_2_49
*551 TAP_TAPCELL_ROW_3_50
*552 TAP_TAPCELL_ROW_3_51
*553 TAP_TAPCELL_ROW_4_52
*554 TAP_TAPCELL_ROW_4_53
*555 TAP_TAPCELL_ROW_5_54
*556 TAP_TAPCELL_ROW_5_55
*557 TAP_TAPCELL_ROW_6_56
*558 TAP_TAPCELL_ROW_6_57
*559 TAP_TAPCELL_ROW_7_58
*560 TAP_TAPCELL_ROW_7_59
*561 TAP_TAPCELL_ROW_8_60
*562 TAP_TAPCELL_ROW_8_61
*563 TAP_TAPCELL_ROW_9_62
*564 TAP_TAPCELL_ROW_9_63
*565 _178_
*566 _179_
*567 _180_
*568 _181_
*569 _182_
*570 _183_
*571 _184_
*572 _185_
*573 _186_
*574 _187_
*575 _188_
*576 _189_
*577 _190_
*578 _191_
*579 _192_
*580 _193_
*581 _194_
*582 _195_
*583 _196_
*584 _197_
*585 _198_
*586 _199_
*587 _200_
*588 _201_
*589 _202_
*590 _203_
*591 _204_
*592 _205_
*593 _206_
*594 _207_
*595 _208_
*596 _209_
*597 _210_
*598 _211_
*599 _212_
*600 _213_
*601 _214_
*602 _215_
*603 _216_
*604 _217_
*605 _218_
*606 _219_
*607 _220_
*608 _221_
*609 _222_
*610 _223_
*611 _224_
*612 _225_
*613 _226_
*614 _227_
*615 _228_
*616 _229_
*617 _230_
*618 _231_
*619 _232_
*620 _233_
*621 _234_
*622 _235_
*623 _236_
*624 _237_
*625 _238_
*626 _239_
*627 _240_
*628 _241_
*629 _242_
*630 _243_
*631 _244_
*632 _245_
*633 _246_
*634 _247_
*635 _248_
*636 _249_
*637 _250_
*638 _251_
*639 _252_
*640 _253_
*641 _254_
*642 _255_
*643 _256_
*644 _257_
*645 _258_
*646 _259_
*647 _260_
*648 _261_
*649 _262_
*650 _263_
*651 _264_
*652 _265_
*653 _266_
*654 _267_
*655 _268_
*656 _269_
*657 _270_
*658 _271_
*659 _272_
*660 _273_
*661 _274_
*662 _275_
*663 _276_
*664 _277_
*665 _278_
*666 _279_
*667 _280_
*668 _281_
*669 _282_
*670 _283_
*671 _284_
*672 _285_
*673 _286_
*674 _287_
*675 _288_
*676 _289_
*677 _290_
*678 _291_
*679 _292_
*680 _293_
*681 _294_
*682 _295_
*683 _296_
*684 _297_
*685 _298_
*686 _299_
*687 _300_
*688 _301_
*689 _302_
*690 _303_
*691 _304_
*692 _305_
*693 _306_
*694 _307_
*695 _308_
*696 _309_
*697 _310_
*698 _311_
*699 _312_
*700 _313_
*701 _314_
*702 _315_
*703 _316_
*704 _317_
*705 _318_
*706 _319_
*707 _320_
*708 _321_
*709 _322_
*710 _323_
*711 _324_
*712 _325_
*713 _326_
*714 _327_
*715 _328_
*716 _329_
*717 _330_
*718 _331_
*719 _332_
*720 _333_
*721 _334_
*722 _335_
*723 _336_
*724 _337_
*725 _338_
*726 _339_
*727 _340_
*728 _341_
*729 _342_
*730 _343_
*731 _344_
*732 _345_
*733 _346_
*734 _347_
*735 _348_
*736 _349_
*737 _350_
*738 _351_
*739 _352_
*740 _353_
*741 _354_
*742 _355_
*743 _356_
*744 _357_
*745 _358_
*746 _359_
*747 _360_
*748 _361_
*749 _362_
*750 _363_
*751 _364_
*752 _365_
*753 _366_
*754 _367_
*755 clone1
*756 clone2
*757 fanout35
*758 fanout36
*759 fanout37
*760 fanout38
*761 fanout39
*762 fanout40
*763 fanout41
*764 fanout42
*765 fanout43
*766 fanout44
*767 input1
*768 input10
*769 input11
*770 input12
*771 input13
*772 input14
*773 input15
*774 input16
*775 input17
*776 input18
*777 input19
*778 input2
*779 input20
*780 input3
*781 input4
*782 input5
*783 input6
*784 input7
*785 input8
*786 input9
*787 max_cap33
*788 max_cap34
*789 output21
*790 output22
*791 output23
*792 output24
*793 output25
*794 output26
*795 output27
*796 output28
*797 output29
*798 output30
*799 output31
*800 output32
*801 rebuffer3

*PORTS
a[0] I
a[1] I
a[2] I
a[3] I
a[4] I
a[5] I
a[6] I
a[7] I
b[0] I
b[1] I
b[2] I
b[3] I
b[4] I
b[5] I
b[6] I
b[7] I
carry_out O
negative O
op[0] I
op[1] I
op[2] I
op[3] I
overflow O
y[0] O
y[1] O
y[2] O
y[3] O
y[4] O
y[5] O
y[6] O
y[7] O
zero O

*D_NET *3 0.00121494
*CONN
*P a[0] I
*I *767:A I *D sky130_fd_sc_hd__clkbuf_2
*CAP
1 a[0] 0.000520872
2 *767:A 0.000520872
3 *767:A *778:A 0
4 *767:A *782:A 8.65961e-05
5 *767:A *786:A 0
6 *767:A *224:8 0
7 *767:A *255:8 8.65961e-05
8 *767:A *259:14 0
*RES
1 a[0] *767:A 12.99 
*END

*D_NET *4 0.000786235
*CONN
*P a[1] I
*I *778:A I *D sky130_fd_sc_hd__buf_2
*CAP
1 a[1] 0.000393118
2 *778:A 0.000393118
3 *767:A *778:A 0
*RES
1 a[1] *778:A 10.35 
*END

*D_NET *5 0.00122225
*CONN
*P a[2] I
*I *780:A I *D sky130_fd_sc_hd__clkbuf_2
*CAP
1 a[2] 0.000380055
2 *780:A 0.000380055
3 *780:A y[1] 8.85261e-05
4 *780:A y[2] 0
5 *780:A *769:A 2.85068e-05
6 *780:A *781:A 0
7 *780:A *793:A 8.57024e-05
8 *780:A *794:A 0.000198051
9 *780:A *170:10 6.13538e-05
*RES
1 a[2] *780:A 7.41983 
*END

*D_NET *6 0.000477401
*CONN
*P a[3] I
*I *781:A I *D sky130_fd_sc_hd__clkbuf_1
*CAP
1 a[3] 0.000227455
2 *781:A 0.000227455
3 *781:A *769:A 2.24901e-05
4 *781:A *170:10 0
5 *780:A *781:A 0
*RES
1 a[3] *781:A 5.35677 
*END

*D_NET *7 0.00220532
*CONN
*P a[4] I
*I *782:A I *D sky130_fd_sc_hd__buf_1
*CAP
1 a[4] 0.000738655
2 *782:A 0.000738655
3 *782:A *645:S1 0.000142131
4 *782:A *671:B 4.57056e-05
5 *782:A *768:A 0
6 *782:A *786:A 0
7 *782:A *213:14 4.82919e-05
8 *782:A *244:101 0.000151823
9 *782:A *244:105 3.13459e-05
10 *782:A *244:113 5.56629e-05
11 *782:A *255:8 8.3762e-05
12 *782:A *255:51 8.26881e-05
13 *767:A *782:A 8.65961e-05
*RES
1 a[4] *782:A 18.825 
*END

*D_NET *8 0.00088673
*CONN
*P a[5] I
*I *783:A I *D sky130_fd_sc_hd__clkbuf_2
*CAP
1 a[5] 0.000364407
2 *783:A 0.000364407
3 *783:A *645:A1 4.82919e-05
4 *783:A *768:A 2.30292e-05
5 *783:A *244:113 8.65961e-05
*RES
1 a[5] *783:A 10.44 
*END

*D_NET *9 0.000498367
*CONN
*P a[6] I
*I *784:A I *D sky130_fd_sc_hd__clkbuf_2
*CAP
1 a[6] 0.000201681
2 *784:A 0.000201681
3 *784:A *785:A 9.50048e-05
*RES
1 a[6] *784:A 4.9633 
*END

*D_NET *10 0.000633557
*CONN
*P a[7] I
*I *785:A I *D sky130_fd_sc_hd__buf_1
*CAP
1 a[7] 0.000269276
2 *785:A 0.000269276
3 *784:A *785:A 9.50048e-05
*RES
1 a[7] *785:A 6.43503 
*END

*D_NET *11 0.000964941
*CONN
*P b[0] I
*I *786:A I *D sky130_fd_sc_hd__buf_4
*CAP
1 b[0] 0.000446935
2 *786:A 0.000446935
3 *786:A *646:B 2.11084e-05
4 *786:A *259:14 4.99619e-05
5 *767:A *786:A 0
6 *782:A *786:A 0
*RES
1 b[0] *786:A 11.49 
*END

*D_NET *12 0.00183019
*CONN
*P b[1] I
*I *768:A I *D sky130_fd_sc_hd__clkbuf_2
*CAP
1 b[1] 0.000510267
2 *768:A 0.000510267
3 *768:A *645:A0 1.59888e-05
4 *768:A *645:A1 0.000124895
5 *768:A *645:A2 0.000426206
6 *768:A *686:A0 7.66083e-05
7 *768:A *244:113 0.000142925
8 *782:A *768:A 0
9 *783:A *768:A 2.30292e-05
*RES
1 b[1] *768:A 15.66 
*END

*D_NET *13 0.000535548
*CONN
*P b[2] I
*I *769:A I *D sky130_fd_sc_hd__clkbuf_1
*CAP
1 b[2] 0.000242276
2 *769:A 0.000242276
3 *780:A *769:A 2.85068e-05
4 *781:A *769:A 2.24901e-05
*RES
1 b[2] *769:A 6.8343 
*END

*D_NET *14 0.000566147
*CONN
*P b[3] I
*I *770:A I *D sky130_fd_sc_hd__buf_1
*CAP
1 b[3] 0.000256124
2 *770:A 0.000256124
3 *770:A y[4] 2.24901e-05
4 *770:A *676:A 0
5 *770:A *772:A 3.14094e-05
*RES
1 b[3] *770:A 7.0893 
*END

*D_NET *15 0.0010907
*CONN
*P b[4] I
*I *771:A I *D sky130_fd_sc_hd__buf_1
*CAP
1 b[4] 0.000545348
2 *771:A 0.000545348
*RES
1 b[4] *771:A 13.335 
*END

*D_NET *16 0.00079414
*CONN
*P b[5] I
*I *772:A I *D sky130_fd_sc_hd__buf_1
*CAP
1 b[5] 0.000333907
2 *772:A 0.000333907
3 *772:A y[2] 0
4 *772:A y[3] 3.14094e-05
5 *772:A y[4] 0
6 *772:A *569:A 9.50342e-06
7 *772:A *676:A 5.4003e-05
8 *772:A *678:A 0
9 *770:A *772:A 3.14094e-05
*RES
1 b[5] *772:A 6.55157 
*END

*D_NET *17 0.00101468
*CONN
*P b[6] I
*I *773:A I *D sky130_fd_sc_hd__buf_1
*CAP
1 b[6] 0.000507342
2 *773:A 0.000507342
3 *773:A y[0] 0
4 *773:A zero 0
5 *773:A *800:A 0
*RES
1 b[6] *773:A 12.645 
*END

*D_NET *18 0.000667147
*CONN
*P b[7] I
*I *774:A I *D sky130_fd_sc_hd__buf_1
*CAP
1 b[7] 0.000290649
2 *774:A 0.000290649
3 *774:A carry_out 0
4 *774:A *752:A1 0
5 *774:A *775:A 8.28789e-05
6 *774:A *220:14 2.97004e-06
*RES
1 b[7] *774:A 6.43503 
*END

*D_NET *19 0.000637766
*CONN
*P carry_out O
*I *789:X O *D sky130_fd_sc_hd__buf_2
*CAP
1 carry_out 0.000252483
2 *789:X 0.000252483
3 carry_out overflow 9.42164e-05
4 carry_out *753:A2 0
5 carry_out *789:A 3.85835e-05
6 *774:A carry_out 0
*RES
1 *789:X carry_out 5.9833 
*END

*D_NET *20 0.000971644
*CONN
*P negative O
*I *790:X O *D sky130_fd_sc_hd__buf_2
*CAP
1 negative 0.000485822
2 *790:X 0.000485822
3 negative y[7] 0
*RES
1 *790:X negative 12.225 
*END

*D_NET *21 0.000776005
*CONN
*P op[0] I
*I *775:A I *D sky130_fd_sc_hd__buf_1
*CAP
1 op[0] 0.000307049
2 *775:A 0.000307049
3 *775:A *777:A 7.90277e-05
4 *775:A *221:12 0
5 *774:A *775:A 8.28789e-05
*RES
1 op[0] *775:A 7.59177 
*END

*D_NET *22 0.00120508
*CONN
*P op[1] I
*I *776:A I *D sky130_fd_sc_hd__clkbuf_2
*CAP
1 op[1] 0.000351344
2 *776:A 0.000351344
3 *776:A *777:A 0.000161728
4 *776:A *779:A 9.25475e-05
5 *776:A *222:8 0.000189299
6 *776:A *222:14 5.88148e-05
*RES
1 op[1] *776:A 9.8083 
*END

*D_NET *23 0.000548658
*CONN
*P op[2] I
*I *777:A I *D sky130_fd_sc_hd__dlymetal6s2s_1
*CAP
1 op[2] 0.000153951
2 *777:A 0.000153951
3 *775:A *777:A 7.90277e-05
4 *776:A *777:A 0.000161728
*RES
1 op[2] *777:A 5.41503 
*END

*D_NET *24 0.000449046
*CONN
*P op[3] I
*I *779:A I *D sky130_fd_sc_hd__dlymetal6s2s_1
*CAP
1 op[3] 0.000178249
2 *779:A 0.000178249
3 *779:A *223:16 0
4 *776:A *779:A 9.25475e-05
*RES
1 op[3] *779:A 4.90503 
*END

*D_NET *25 0.000499064
*CONN
*P overflow O
*I *791:X O *D sky130_fd_sc_hd__buf_2
*CAP
1 overflow 0.000202424
2 *791:X 0.000202424
3 overflow *735:B 0
4 carry_out overflow 9.42164e-05
*RES
1 *791:X overflow 4.9633 
*END

*D_NET *26 0.000968416
*CONN
*P y[0] O
*I *792:X O *D sky130_fd_sc_hd__buf_2
*CAP
1 y[0] 0.000484208
2 *792:X 0.000484208
3 y[0] y[6] 0
4 *773:A y[0] 0
*RES
1 *792:X y[0] 12.225 
*END

*D_NET *27 0.00120395
*CONN
*P y[1] O
*I *793:X O *D sky130_fd_sc_hd__buf_2
*CAP
1 y[1] 0.00037586
2 *793:X 0.00037586
3 y[1] y[2] 0.000337878
4 y[1] *794:A 2.58301e-05
5 *780:A y[1] 8.85261e-05
*RES
1 *793:X y[1] 10.1602 
*END

*D_NET *28 0.00140078
*CONN
*P y[2] O
*I *794:X O *D sky130_fd_sc_hd__buf_2
*CAP
1 y[2] 0.000520206
2 *794:X 0.000520206
3 y[2] y[3] 2.24901e-05
4 y[2] *170:10 0
5 y[1] y[2] 0.000337878
6 *772:A y[2] 0
7 *780:A y[2] 0
*RES
1 *794:X y[2] 11.4485 
*END

*D_NET *29 0.000592769
*CONN
*P y[3] O
*I *795:X O *D sky130_fd_sc_hd__buf_2
*CAP
1 y[3] 0.000269435
2 *795:X 0.000269435
3 y[2] y[3] 2.24901e-05
4 *772:A y[3] 3.14094e-05
*RES
1 *795:X y[3] 7.1793 
*END

*D_NET *30 0.000466838
*CONN
*P y[4] O
*I *796:X O *D sky130_fd_sc_hd__buf_2
*CAP
1 y[4] 0.000219093
2 *796:X 0.000219093
3 y[4] *675:B 6.16226e-06
4 *770:A y[4] 2.24901e-05
5 *772:A y[4] 0
*RES
1 *796:X y[4] 4.90503 
*END

*D_NET *31 0.000968416
*CONN
*P y[5] O
*I *797:X O *D sky130_fd_sc_hd__buf_2
*CAP
1 y[5] 0.000484208
2 *797:X 0.000484208
3 y[5] y[6] 0
*RES
1 *797:X y[5] 12.225 
*END

*D_NET *32 0.00100642
*CONN
*P y[6] O
*I *798:X O *D sky130_fd_sc_hd__buf_2
*CAP
1 y[6] 0.000503211
2 *798:X 0.000503211
3 y[0] y[6] 0
4 y[5] y[6] 0
*RES
1 *798:X y[6] 12.57 
*END

*D_NET *33 0.00113168
*CONN
*P y[7] O
*I *799:X O *D sky130_fd_sc_hd__buf_2
*CAP
1 y[7] 0.00056584
2 *799:X 0.00056584
3 y[7] zero 0
4 negative y[7] 0
*RES
1 *799:X y[7] 13.365 
*END

*D_NET *34 0.00117506
*CONN
*P zero O
*I *800:X O *D sky130_fd_sc_hd__buf_6
*CAP
1 zero 0.000587528
2 *800:X 0.000587528
3 y[7] zero 0
4 *773:A zero 0
*RES
1 *800:X zero 13.875 
*END

*D_NET *35 0.00101031
*CONN
*I *634:D_N I *D sky130_fd_sc_hd__or4b_1
*I *633:X O *D sky130_fd_sc_hd__or4_1
*CAP
1 *634:D_N 0.000258902
2 *633:X 0.000258902
3 *634:D_N *634:A 0
4 *634:D_N *667:S 0.000116844
5 *634:D_N *43:12 0.000228213
6 *634:D_N *249:8 6.11008e-05
7 *634:D_N *257:77 8.63479e-05
*RES
1 *633:X *634:D_N 12.84 
*END

*D_NET *36 0.00265004
*CONN
*I *635:B1 I *D sky130_fd_sc_hd__a31o_1
*I *634:X O *D sky130_fd_sc_hd__or4b_1
*CAP
1 *635:B1 0.000562347
2 *634:X 0.000562347
3 *635:B1 *616:A0 9.17274e-05
4 *635:B1 *628:A2 0
5 *635:B1 *629:B1 4.49476e-05
6 *635:B1 *635:A1 0.000139252
7 *635:B1 *639:A 0.000274627
8 *635:B1 *641:B 1.88656e-05
9 *635:B1 *691:A2 0.000494778
10 *635:B1 *741:A1 0
11 *635:B1 *55:8 2.15738e-05
12 *635:B1 *199:16 0.00026476
13 *635:B1 *243:34 7.06865e-05
14 *635:B1 *258:37 4.12825e-05
15 *635:B1 *258:48 6.28498e-05
*RES
1 *634:X *635:B1 19.26 
*END

*D_NET *37 0.000537297
*CONN
*I *637:B I *D sky130_fd_sc_hd__or2_1
*I *636:X O *D sky130_fd_sc_hd__mux2_1
*CAP
1 *637:B 6.79105e-05
2 *636:X 6.79105e-05
3 *637:B *636:A1 9.82525e-05
4 *637:B *84:12 4.82919e-05
5 *637:B *199:56 7.18817e-05
6 *637:B *250:65 0.00018305
*RES
1 *636:X *637:B 9.795 
*END

*D_NET *38 0.00172011
*CONN
*I *642:A2 I *D sky130_fd_sc_hd__a31o_1
*I *637:X O *D sky130_fd_sc_hd__or2_1
*CAP
1 *642:A2 0.000311505
2 *637:X 0.000311505
3 *642:A2 *628:B1_N 0
4 *642:A2 *634:B 0.000220555
5 *642:A2 *634:C 5.88564e-05
6 *642:A2 *688:A2 0.000136884
7 *642:A2 *84:12 2.23407e-05
8 *642:A2 *195:48 0.000285436
9 *642:A2 *195:61 8.40213e-05
10 *642:A2 *250:63 0.000289011
*RES
1 *637:X *642:A2 15.495 
*END

*D_NET *39 0.000179985
*CONN
*I *742:B1 I *D sky130_fd_sc_hd__a211o_1
*I *638:X O *D sky130_fd_sc_hd__and2_1
*CAP
1 *742:B1 6.93083e-05
2 *638:X 6.93083e-05
3 *742:B1 *654:B 2.76356e-05
4 *742:B1 *742:A2 1.37328e-05
*RES
1 *638:X *742:B1 4.355 
*END

*D_NET *40 0.00168263
*CONN
*I *660:A1 I *D sky130_fd_sc_hd__o21a_1
*I *642:B1 I *D sky130_fd_sc_hd__a31o_1
*I *639:X O *D sky130_fd_sc_hd__and3_1
*CAP
1 *660:A1 0
2 *642:B1 5.56025e-05
3 *639:X 0.000198368
4 *40:14 0.00025397
5 *642:B1 *631:A 0.000179783
6 *642:B1 *195:38 0.000179089
7 *40:14 *628:B1_N 4.66108e-05
8 *40:14 *629:B1 0.000220445
9 *40:14 *629:B2 1.19928e-05
10 *40:14 *631:B 2.23485e-05
11 *40:14 *659:B 5.74791e-05
12 *40:14 *195:8 0.00019391
13 *40:14 *206:22 0.000180682
14 *40:14 *239:8 8.23457e-05
*RES
1 *639:X *40:14 10.88 
2 *40:14 *642:B1 7.745 
3 *40:14 *660:A1 1.6 
*END

*D_NET *41 0.00207602
*CONN
*I *682:B I *D sky130_fd_sc_hd__nor2_1
*I *641:B I *D sky130_fd_sc_hd__nand2_1
*I *640:Y O *D sky130_fd_sc_hd__nand3b_1
*CAP
1 *682:B 9.75335e-05
2 *641:B 0.000335406
3 *640:Y 9.47958e-06
4 *41:6 0.000442419
5 *641:B *616:S 4.77719e-05
6 *641:B *639:A 0.000573139
7 *641:B *640:A_N 8.23457e-05
8 *641:B *682:A 4.11386e-05
9 *641:B *691:A2 1.7635e-05
10 *641:B *43:12 1.92979e-05
11 *641:B *213:90 0.000113706
12 *641:B *243:41 1.91597e-05
13 *641:B *257:77 2.10433e-05
14 *682:B *691:A2 0.00011379
15 *682:B *739:B2 5.33085e-05
16 *41:6 *640:A_N 4.82919e-05
17 *41:6 *243:41 2.16917e-05
18 *635:B1 *641:B 1.88656e-05
*RES
1 *640:Y *41:6 2.05 
2 *41:6 *641:B 8.772 
3 *41:6 *682:B 7.49 
*END

*D_NET *42 0.000238022
*CONN
*I *642:A3 I *D sky130_fd_sc_hd__a31o_1
*I *641:Y O *D sky130_fd_sc_hd__nand2_1
*CAP
1 *642:A3 7.52437e-05
2 *641:Y 7.52437e-05
3 *642:A3 *616:S 6.00201e-05
4 *642:A3 *210:12 2.75145e-05
*RES
1 *641:Y *642:A3 4.685 
*END

*D_NET *43 0.00598773
*CONN
*I *715:A2 I *D sky130_fd_sc_hd__a21o_1
*I *658:A2 I *D sky130_fd_sc_hd__a211o_1
*I *642:X O *D sky130_fd_sc_hd__a31o_1
*CAP
1 *715:A2 0.000489161
2 *658:A2 7.80664e-05
3 *642:X 0.000729833
4 *43:12 0.00129706
5 *658:A2 *649:A3 0.000204204
6 *658:A2 *658:A1 4.77719e-05
7 *658:A2 *658:B1 4.41506e-05
8 *658:A2 *248:84 1.46024e-05
9 *715:A2 *594:B 0.000333503
10 *715:A2 *672:A2 0.000329003
11 *715:A2 *204:48 0
12 *715:A2 *210:45 0.000232403
13 *715:A2 *235:82 1.1561e-05
14 *715:A2 *248:57 1.73654e-05
15 *715:A2 *251:64 5.62106e-05
16 *715:A2 *256:41 0.000461963
17 *43:12 *618:A_N 4.19126e-05
18 *43:12 *618:B 1.12643e-05
19 *43:12 *634:B 9.51488e-05
20 *43:12 *649:A3 0.000303873
21 *43:12 *667:A0 9.44002e-05
22 *43:12 *667:A1 2.16917e-05
23 *43:12 *669:A1 4.82863e-05
24 *43:12 *669:B1 0.000104374
25 *43:12 *69:12 0.0001249
26 *43:12 *198:21 0.000120655
27 *43:12 *199:16 3.57349e-05
28 *43:12 *199:20 0.000194694
29 *43:12 *199:50 2.82887e-05
30 *43:12 *210:12 9.50342e-06
31 *43:12 *235:82 8.34281e-06
32 *43:12 *248:84 2.39856e-05
33 *43:12 *251:64 4.69011e-05
34 *43:12 *257:77 7.9407e-05
35 *634:D_N *43:12 0.000228213
36 *641:B *43:12 1.92979e-05
*RES
1 *642:X *43:12 21.215 
2 *43:12 *658:A2 3.79 
3 *43:12 *715:A2 17.57 
*END

*D_NET *44 0.000268562
*CONN
*I *644:A2 I *D sky130_fd_sc_hd__a211o_1
*I *643:Y O *D sky130_fd_sc_hd__nand2b_1
*CAP
1 *644:A2 2.92997e-05
2 *643:Y 2.92997e-05
3 *644:A2 *565:A 0.000121019
4 *644:A2 *643:A_N 4.77719e-05
5 *644:A2 *205:45 4.11718e-05
*RES
1 *643:Y *644:A2 4.34 
*END

*D_NET *45 0.000974141
*CONN
*I *711:B I *D sky130_fd_sc_hd__nor2_1
*I *647:A1 I *D sky130_fd_sc_hd__a21oi_1
*I *644:X O *D sky130_fd_sc_hd__a211o_1
*CAP
1 *711:B 6.7536e-05
2 *647:A1 0.000215458
3 *644:X 0
4 *45:4 0.000282994
5 *647:A1 *565:A 0.000233466
6 *647:A1 *647:A2 1.41095e-05
7 *647:A1 *248:84 4.82919e-05
8 *711:B *618:A_N 0.000112284
*RES
1 *644:X *45:4 1.6 
2 *45:4 *647:A1 4.465 
3 *45:4 *711:B 6.98 
*END

*D_NET *46 0.00142374
*CONN
*I *646:B I *D sky130_fd_sc_hd__nand2_1
*I *645:X O *D sky130_fd_sc_hd__mux4_1
*CAP
1 *646:B 0.000471271
2 *645:X 0.000471271
3 *646:B *645:S1 0
4 *646:B *244:101 0.000113517
5 *646:B *252:25 8.65705e-05
6 *646:B *255:51 8.7839e-05
7 *646:B *256:18 9.90821e-05
8 *646:B *256:41 7.30861e-05
9 *646:B *259:14 0
10 *786:A *646:B 2.11084e-05
*RES
1 *645:X *646:B 15.84 
*END

*D_NET *47 0.000922975
*CONN
*I *647:A2 I *D sky130_fd_sc_hd__a21oi_1
*I *646:Y O *D sky130_fd_sc_hd__nand2_1
*CAP
1 *647:A2 0.000244409
2 *646:Y 0.000244409
3 *647:A2 *643:A_N 0
4 *647:A2 *658:B1 2.34331e-05
5 *647:A2 *672:A2 5.38986e-06
6 *647:A2 *725:S 0.000101764
7 *647:A2 *205:45 8.41307e-05
8 *647:A2 *213:40 0.000199498
9 *647:A2 *248:84 5.83121e-06
10 *647:A2 *256:41 0
11 *647:A1 *647:A2 1.41095e-05
*RES
1 *646:Y *647:A2 11.565 
*END

*D_NET *48 0.00175142
*CONN
*I *658:B1 I *D sky130_fd_sc_hd__a211o_1
*I *647:Y O *D sky130_fd_sc_hd__a21oi_1
*CAP
1 *658:B1 0.000437419
2 *647:Y 0.000437419
3 *658:B1 *625:B 0.000119866
4 *658:B1 *648:A1 0
5 *658:B1 *658:C1 0.000112123
6 *658:B1 *672:A2 0.000222813
7 *658:B1 *205:45 0.000119715
8 *658:B1 *248:84 0.00023448
9 *658:B1 *256:41 0
10 *647:A2 *658:B1 2.34331e-05
11 *658:A2 *658:B1 4.41506e-05
*RES
1 *647:Y *658:B1 19.435 
*END

*D_NET *49 0.000694616
*CONN
*I *657:B I *D sky130_fd_sc_hd__or3b_1
*I *648:X O *D sky130_fd_sc_hd__o21a_1
*CAP
1 *657:B 0.000184907
2 *648:X 0.000184907
3 *657:B *648:A1 0.000132094
4 *657:B *649:A1 0.000109198
5 *657:B *251:52 8.35106e-05
*RES
1 *648:X *657:B 10.905 
*END

*D_NET *50 0.00052241
*CONN
*I *657:C_N I *D sky130_fd_sc_hd__or3b_1
*I *649:X O *D sky130_fd_sc_hd__o32a_1
*CAP
1 *657:C_N 0.00010625
2 *649:X 0.00010625
3 *657:C_N *648:A1 0.000139238
4 *657:C_N *649:A1 2.97593e-05
5 *657:C_N *256:41 0.000140912
*RES
1 *649:X *657:C_N 9.63 
*END

*D_NET *51 0.000440644
*CONN
*I *656:A1 I *D sky130_fd_sc_hd__a32o_1
*I *650:X O *D sky130_fd_sc_hd__or2_1
*CAP
1 *656:A1 8.5229e-05
2 *650:X 8.5229e-05
3 *656:A1 *587:B 1.83756e-05
4 *656:A1 *167:10 9.30717e-05
5 *656:A1 *246:10 2.42236e-05
6 *656:A1 *251:43 0.000134516
*RES
1 *650:X *656:A1 9.285 
*END

*D_NET *52 0.0159982
*CONN
*I *745:B2 I *D sky130_fd_sc_hd__a221o_1
*I *724:C1 I *D sky130_fd_sc_hd__o311a_1
*I *705:A1 I *D sky130_fd_sc_hd__a211o_1
*I *656:A2 I *D sky130_fd_sc_hd__a32o_1
*I *673:B2 I *D sky130_fd_sc_hd__a22o_1
*I *651:Y O *D sky130_fd_sc_hd__nor2_2
*CAP
1 *745:B2 0.00075951
2 *724:C1 3.03006e-05
3 *705:A1 0.000122094
4 *656:A2 0.000278501
5 *673:B2 1.49778e-05
6 *651:Y 0.00111219
7 *52:77 0.00258873
8 *52:52 0.00323527
9 *52:29 0.00179845
10 *52:14 0.00133286
11 *656:A2 *649:B1 1.15688e-05
12 *656:A2 *649:B2 0.000138799
13 *656:A2 *662:A3 0.000202424
14 *656:A2 *746:A 0.000376621
15 *656:A2 *230:10 0.000162778
16 *656:A2 *256:41 0.000164229
17 *673:B2 *673:B1 1.75875e-05
18 *705:A1 *705:C1 4.43871e-06
19 *705:A1 *55:93 1.86009e-05
20 *705:A1 *55:97 4.24562e-05
21 *705:A1 *244:53 0
22 *724:C1 *724:B1 7.9642e-06
23 *724:C1 *734:A1 1.30972e-05
24 *724:C1 *734:A2 8.7152e-06
25 *745:B2 *580:A 9.78147e-05
26 *745:B2 *580:B 0
27 *745:B2 *609:A1 1.26626e-05
28 *745:B2 *609:B2 3.96263e-05
29 *745:B2 *745:A1 4.00541e-06
30 *745:B2 *745:B1 5.4155e-06
31 *745:B2 *745:C1 3.26822e-05
32 *745:B2 *129:25 2.68721e-05
33 *745:B2 *190:10 0.000146274
34 *745:B2 *219:23 0.000222987
35 *52:14 *628:A2 6.97202e-05
36 *52:14 *631:B 4.60584e-05
37 *52:14 *631:C 6.17101e-05
38 *52:14 *639:A 3.00381e-05
39 *52:14 *639:C 0.000217707
40 *52:14 *651:B 0
41 *52:14 *673:A2 0.000550255
42 *52:14 *60:12 5.90742e-05
43 *52:14 *239:8 0.000403609
44 *52:29 *661:B1 3.17481e-05
45 *52:29 *673:A2 2.85482e-05
46 *52:29 *673:B1 4.77757e-05
47 *52:29 *674:D 0.000119762
48 *52:29 *206:52 4.41506e-05
49 *52:52 *662:A3 1.88602e-05
50 *52:52 *746:A 1.15399e-05
51 *52:52 *244:53 0.000656534
52 *52:77 *576:B 0.000168991
53 *52:77 *55:85 0
54 *52:77 *55:93 0.000141561
55 *52:77 *219:23 0.000190212
56 *52:77 *244:53 1.00909e-05
57 *52:77 *255:51 5.97625e-05
*RES
1 *651:Y *52:14 24.025 
2 *52:14 *673:B2 1.96 
3 *52:14 *52:29 5.93 
4 *52:29 *656:A2 11.745 
5 *52:29 *52:52 4.16323 
6 *52:52 *705:A1 5.1629 
7 *52:52 *52:77 3.363 
8 *52:77 *724:C1 4.5875 
9 *52:77 *745:B2 9.15805 
*END

*D_NET *53 0.00823964
*CONN
*I *749:B1 I *D sky130_fd_sc_hd__a21oi_1
*I *719:C1 I *D sky130_fd_sc_hd__a211o_1
*I *681:A I *D sky130_fd_sc_hd__nor2_1
*I *652:X O *D sky130_fd_sc_hd__or2_1
*CAP
1 *749:B1 0
2 *719:C1 9.50065e-05
3 *681:A 0.000515623
4 *652:X 0.000342341
5 *53:28 0.00208789
6 *53:14 0.0018196
7 *681:A *689:A 5.06989e-05
8 *681:A *698:A1_N 0.000164151
9 *681:A *698:B2 4.66108e-05
10 *681:A *747:C 1.16854e-05
11 *681:A *163:14 0.000158072
12 *681:A *206:97 4.40028e-05
13 *719:C1 *604:B1 2.60986e-05
14 *719:C1 *705:B1 0.000266237
15 *719:C1 *183:29 0.000245913