*SPEF "ieee 1481-1999"
*DESIGN "alu8"
*DATE "00:21:29 Saturday November 15, 2025"
*VENDOR "The OpenROAD Project"
*PROGRAM "OpenROAD"
*VERSION "edf00dff99f6c40d67a30c0e22a8191c5d2ed9d6"
*DESIGN_FLOW "NAME_SCOPE LOCAL" "PIN_CAP NONE"
*DIVIDER /
*DELIMITER :
*BUS_DELIMITER []
*T_UNIT 1 NS
*C_UNIT 1 PF
*R_UNIT 1 OHM
*L_UNIT 1 HENRY

*NAME_MAP
*3 a[0]
*4 a[1]
*5 a[2]
*6 a[3]
*7 a[4]
*8 a[5]
*9 a[6]
*10 a[7]
*11 b[0]
*12 b[1]
*13 b[2]
*14 b[3]
*15 b[4]
*16 b[5]
*17 b[6]
*18 b[7]
*19 carry_out
*20 negative
*21 op[0]
*22 op[1]
*23 op[2]
*24 op[3]
*25 overflow
*26 y[0]
*27 y[1]
*28 y[2]
*29 y[3]
*30 y[4]
*31 y[5]
*32 y[6]
*33 y[7]
*34 zero
*35 _000_
*36 _001_
*37 _002_
*38 _003_
*39 _004_
*40 _005_
*41 _006_
*42 _007_
*43 _008_
*44 _009_
*45 _010_
*46 _011_
*47 _012_
*48 _013_
*49 _014_
*50 _015_
*51 _016_
*52 _017_
*53 _018_
*54 _019_
*55 _020_
*56 _021_
*57 _022_
*58 _023_
*59 _024_
*60 _025_
*61 _026_
*62 _027_
*63 _028_
*64 _029_
*65 _030_
*66 _031_
*67 _032_
*68 _033_
*69 _034_
*70 _035_
*71 _036_
*72 _037_
*73 _038_
*74 _039_
*75 _040_
*76 _041_
*77 _042_
*78 _043_
*79 _044_
*80 _045_
*81 _046_
*82 _047_
*83 _048_
*84 _049_
*85 _050_
*86 _051_
*87 _052_
*88 _053_
*89 _054_
*90 _055_
*91 _056_
*92 _057_
*93 _058_
*94 _059_
*95 _060_
*96 _061_
*97 _062_
*98 _063_
*99 _064_
*100 _065_
*101 _066_
*102 _067_
*103 _068_
*104 _069_
*105 _070_
*106 _071_
*107 _072_
*108 _073_
*109 _074_
*110 _075_
*111 _076_
*112 _077_
*113 _078_
*114 _079_
*115 _080_
*116 _081_
*117 _082_
*118 _083_
*119 _084_
*120 _085_
*121 _086_
*122 _087_
*123 _088_
*124 _089_
*125 _090_
*126 _091_
*127 _092_
*128 _093_
*129 _094_
*130 _095_
*131 _096_
*132 _097_
*133 _098_
*134 _099_
*135 _100_
*136 _101_
*137 _102_
*138 _103_
*139 _104_
*140 _105_
*141 _106_
*142 _107_
*143 _108_
*144 _109_
*145 _110_
*146 _111_
*147 _112_
*148 _113_
*149 _114_
*150 _115_
*151 _116_
*152 _117_
*153 _118_
*154 _119_
*155 _120_
*156 _121_
*157 _122_
*158 _123_
*159 _124_
*160 _125_
*161 _126_
*162 _127_
*163 _128_
*164 _129_
*165 _130_
*166 _131_
*167 _132_
*168 _133_
*169 _134_
*170 _135_
*171 _136_
*172 _137_
*173 _138_
*174 _139_
*175 _140_
*176 _141_
*177 _142_
*178 _143_
*179 _144_
*180 _145_
*181 _146_
*182 _147_
*183 _148_
*184 _149_
*185 _150_
*186 _151_
*187 _152_
*188 _153_
*189 _154_
*190 _155_
*191 _156_
*192 _157_
*193 _158_
*194 _159_
*195 _160_
*196 _161_
*197 _162_
*198 _163_
*199 _164_
*200 _165_
*201 _166_
*202 _167_
*203 _168_
*204 _169_
*205 _170_
*206 _171_
*207 _172_
*208 _173_
*209 _174_
*210 _175_
*211 _176_
*212 _177_
*213 net1
*214 net10
*215 net11
*216 net12
*217 net13
*218 net14
*219 net15
*220 net16
*221 net17
*222 net18
*223 net19
*224 net2
*225 net20
*226 net21
*227 net22
*228 net23
*229 net24
*230 net25
*231 net26
*232 net27
*233 net28
*234 net29
*235 net3
*236 net30
*237 net31
*238 net32
*239 net33
*240 net34
*241 net35
*242 net36
*243 net37
*244 net38
*245 net39
*246 net4
*247 net40
*248 net41
*249 net42
*250 net43
*251 net44
*252 net45
*253 net46
*254 net47
*255 net5
*256 net6
*257 net7
*258 net8
*259 net9
*260 FILLER_0_109
*261 FILLER_0_113
*262 FILLER_0_125
*263 FILLER_0_15
*264 FILLER_0_27
*265 FILLER_0_3
*266 FILLER_0_50
*267 FILLER_0_61
*268 FILLER_0_83
*269 FILLER_0_85
*270 FILLER_0_97
*271 FILLER_10_102
*272 FILLER_10_124
*273 FILLER_10_24
*274 FILLER_10_3
*275 FILLER_10_36
*276 FILLER_10_48
*277 FILLER_10_60
*278 FILLER_10_7
*279 FILLER_10_72
*280 FILLER_10_78
*281 FILLER_10_85
*282 FILLER_11_102
*283 FILLER_11_113
*284 FILLER_11_27
*285 FILLER_11_44
*286 FILLER_11_55
*287 FILLER_11_60
*288 FILLER_11_68
*289 FILLER_11_85
*290 FILLER_11_93
*291 FILLER_11_97
*292 FILLER_12_114
*293 FILLER_12_26
*294 FILLER_12_29
*295 FILLER_12_41
*296 FILLER_12_63
*297 FILLER_12_7
*298 FILLER_12_74
*299 FILLER_12_80
*300 FILLER_13_106
*301 FILLER_13_113
*302 FILLER_13_120
*303 FILLER_13_15
*304 FILLER_13_3
*305 FILLER_13_30
*306 FILLER_13_34
*307 FILLER_13_55
*308 FILLER_13_64
*309 FILLER_13_77
*310 FILLER_13_83
*311 FILLER_13_89
*312 FILLER_13_97
*313 FILLER_14_118
*314 FILLER_14_122
*315 FILLER_14_27
*316 FILLER_14_29
*317 FILLER_14_41
*318 FILLER_14_56
*319 FILLER_14_68
*320 FILLER_14_74
*321 FILLER_14_81
*322 FILLER_14_85
*323 FILLER_15_123
*324 FILLER_15_32
*325 FILLER_15_38
*326 FILLER_15_47
*327 FILLER_15_55
*328 FILLER_15_57
*329 FILLER_15_69
*330 FILLER_15_75
*331 FILLER_15_79
*332 FILLER_15_99
*333 FILLER_16_102
*334 FILLER_16_110
*335 FILLER_16_117
*336 FILLER_16_121
*337 FILLER_16_27
*338 FILLER_16_29
*339 FILLER_16_41
*340 FILLER_16_53
*341 FILLER_16_65
*342 FILLER_16_7
*343 FILLER_16_82
*344 FILLER_16_90
*345 FILLER_17_100
*346 FILLER_17_106
*347 FILLER_17_120
*348 FILLER_17_15
*349 FILLER_17_28
*350 FILLER_17_3
*351 FILLER_17_36
*352 FILLER_17_44
*353 FILLER_18_11
*354 FILLER_18_120
*355 FILLER_18_26
*356 FILLER_18_29
*357 FILLER_18_3
*358 FILLER_18_77
*359 FILLER_18_85
*360 FILLER_18_96
*361 FILLER_19_107
*362 FILLER_19_111
*363 FILLER_19_113
*364 FILLER_19_125
*365 FILLER_19_15
*366 FILLER_19_28
*367 FILLER_19_3
*368 FILLER_19_36
*369 FILLER_19_47
*370 FILLER_19_54
*371 FILLER_19_60
*372 FILLER_19_64
*373 FILLER_19_74
*374 FILLER_19_89
*375 FILLER_19_95
*376 FILLER_1_108
*377 FILLER_1_113
*378 FILLER_1_125
*379 FILLER_1_15
*380 FILLER_1_28
*381 FILLER_1_3
*382 FILLER_1_54
*383 FILLER_1_69
*384 FILLER_1_96
*385 FILLER_20_100
*386 FILLER_20_105
*387 FILLER_20_111
*388 FILLER_20_113
*389 FILLER_20_125
*390 FILLER_20_15
*391 FILLER_20_27
*392 FILLER_20_29
*393 FILLER_20_3
*394 FILLER_20_41
*395 FILLER_20_48
*396 FILLER_20_57
*397 FILLER_20_63
*398 FILLER_20_70
*399 FILLER_20_77
*400 FILLER_20_83
*401 FILLER_20_85
*402 FILLER_2_101
*403 FILLER_2_113
*404 FILLER_2_121
*405 FILLER_2_15
*406 FILLER_2_29
*407 FILLER_2_3
*408 FILLER_2_63
*409 FILLER_2_89
*410 FILLER_3_101
*411 FILLER_3_109
*412 FILLER_3_113
*413 FILLER_3_125
*414 FILLER_3_22
*415 FILLER_3_3
*416 FILLER_3_54
*417 FILLER_3_66
*418 FILLER_3_72
*419 FILLER_3_76
*420 FILLER_3_89
*421 FILLER_4_103
*422 FILLER_4_115
*423 FILLER_4_29
*424 FILLER_4_3
*425 FILLER_4_62
*426 FILLER_4_66
*427 FILLER_4_75
*428 FILLER_4_83
*429 FILLER_4_9
*430 FILLER_4_91
*431 FILLER_5_105
*432 FILLER_5_11
*433 FILLER_5_111
*434 FILLER_5_113
*435 FILLER_5_125
*436 FILLER_5_18
*437 FILLER_5_26
*438 FILLER_5_3
*439 FILLER_5_31
*440 FILLER_5_35
*441 FILLER_5_55
*442 FILLER_5_57
*443 FILLER_5_69
*444 FILLER_5_77
*445 FILLER_5_93
*446 FILLER_6_109
*447 FILLER_6_121
*448 FILLER_6_125
*449 FILLER_6_14
*450 FILLER_6_36
*451 FILLER_6_44
*452 FILLER_6_48
*453 FILLER_6_6
*454 FILLER_6_69
*455 FILLER_6_81
*456 FILLER_6_85
*457 FILLER_6_97
*458 FILLER_7_106
*459 FILLER_7_122
*460 FILLER_7_39
*461 FILLER_7_43
*462 FILLER_7_6
*463 FILLER_7_74
*464 FILLER_7_94
*465 FILLER_8_100
*466 FILLER_8_18
*467 FILLER_8_26
*468 FILLER_8_35
*469 FILLER_9_10
*470 FILLER_9_124
*471 FILLER_9_27
*472 FILLER_9_39
*473 FILLER_9_54
*474 FILLER_9_60
*475 FILLER_9_89
*476 FILLER_9_99
*477 PHY_EDGE_ROW_0_Left_21
*478 PHY_EDGE_ROW_0_Right_0
*479 PHY_EDGE_ROW_10_Left_31
*480 PHY_EDGE_ROW_10_Right_10
*481 PHY_EDGE_ROW_11_Left_32
*482 PHY_EDGE_ROW_11_Right_11
*483 PHY_EDGE_ROW_12_Left_33
*484 PHY_EDGE_ROW_12_Right_12
*485 PHY_EDGE_ROW_13_Left_34
*486 PHY_EDGE_ROW_13_Right_13
*487 PHY_EDGE_ROW_14_Left_35
*488 PHY_EDGE_ROW_14_Right_14
*489 PHY_EDGE_ROW_15_Left_36
*490 PHY_EDGE_ROW_15_Right_15
*491 PHY_EDGE_ROW_16_Left_37
*492 PHY_EDGE_ROW_16_Right_16
*493 PHY_EDGE_ROW_17_Left_38
*494 PHY_EDGE_ROW_17_Right_17
*495 PHY_EDGE_ROW_18_Left_39
*496 PHY_EDGE_ROW_18_Right_18
*497 PHY_EDGE_ROW_19_Left_40
*498 PHY_EDGE_ROW_19_Right_19
*499 PHY_EDGE_ROW_1_Left_22
*500 PHY_EDGE_ROW_1_Right_1
*501 PHY_EDGE_ROW_20_Left_41
*502 PHY_EDGE_ROW_20_Right_20
*503 PHY_EDGE_ROW_2_Left_23
*504 PHY_EDGE_ROW_2_Right_2
*505 PHY_EDGE_ROW_3_Left_24
*506 PHY_EDGE_ROW_3_Right_3
*507 PHY_EDGE_ROW_4_Left_25
*508 PHY_EDGE_ROW_4_Right_4
*509 PHY_EDGE_ROW_5_Left_26
*510 PHY_EDGE_ROW_5_Right_5
*511 PHY_EDGE_ROW_6_Left_27
*512 PHY_EDGE_ROW_6_Right_6
*513 PHY_EDGE_ROW_7_Left_28
*514 PHY_EDGE_ROW_7_Right_7
*515 PHY_EDGE_ROW_8_Left_29
*516 PHY_EDGE_ROW_8_Right_8
*517 PHY_EDGE_ROW_9_Left_30
*518 PHY_EDGE_ROW_9_Right_9
*519 TAP_TAPCELL_ROW_0_42
*520 TAP_TAPCELL_ROW_0_43
*521 TAP_TAPCELL_ROW_0_44
*522 TAP_TAPCELL_ROW_0_45
*523 TAP_TAPCELL_ROW_10_64
*524 TAP_TAPCELL_ROW_10_65
*525 TAP_TAPCELL_ROW_11_66
*526 TAP_TAPCELL_ROW_11_67
*527 TAP_TAPCELL_ROW_12_68
*528 TAP_TAPCELL_ROW_12_69
*529 TAP_TAPCELL_ROW_13_70
*530 TAP_TAPCELL_ROW_13_71
*531 TAP_TAPCELL_ROW_14_72
*532 TAP_TAPCELL_ROW_14_73
*533 TAP_TAPCELL_ROW_15_74
*534 TAP_TAPCELL_ROW_15_75
*535 TAP_TAPCELL_ROW_16_76
*536 TAP_TAPCELL_ROW_16_77
*537 TAP_TAPCELL_ROW_17_78
*538 TAP_TAPCELL_ROW_17_79
*539 TAP_TAPCELL_ROW_18_80
*540 TAP_TAPCELL_ROW_18_81
*541 TAP_TAPCELL_ROW_19_82
*542 TAP_TAPCELL_ROW_19_83
*543 TAP_TAPCELL_ROW_1_46
*544 TAP_TAPCELL_ROW_1_47
*545 TAP_TAPCELL_ROW_20_84
*546 TAP_TAPCELL_ROW_20_85
*547 TAP_TAPCELL_ROW_20_86
*548 TAP_TAPCELL_ROW_20_87
*549 TAP_TAPCELL_ROW_2_48
*550 TAP_TAPCELL_ROW_2_49
*551 TAP_TAPCELL_ROW_3_50
*552 TAP_TAPCELL_ROW_3_51
*553 TAP_TAPCELL_ROW_4_52
*554 TAP_TAPCELL_ROW_4_53
*555 TAP_TAPCELL_ROW_5_54
*556 TAP_TAPCELL_ROW_5_55
*557 TAP_TAPCELL_ROW_6_56
*558 TAP_TAPCELL_ROW_6_57
*559 TAP_TAPCELL_ROW_7_58
*560 TAP_TAPCELL_ROW_7_59
*561 TAP_TAPCELL_ROW_8_60
*562 TAP_TAPCELL_ROW_8_61
*563 TAP_TAPCELL_ROW_9_62
*564 TAP_TAPCELL_ROW_9_63
*565 _178_
*566 _179_
*567 _180_
*568 _181_
*569 _182_
*570 _183_
*571 _184_
*572 _185_
*573 _186_
*574 _187_
*575 _188_
*576 _189_
*577 _190_
*578 _191_
*579 _192_
*580 _193_
*581 _194_
*582 _195_
*583 _196_
*584 _197_
*585 _198_
*586 _199_
*587 _200_
*588 _201_
*589 _202_
*590 _203_
*591 _204_
*592 _205_
*593 _206_
*594 _207_
*595 _208_
*596 _209_
*597 _210_
*598 _211_
*599 _212_
*600 _213_
*601 _214_
*602 _215_
*603 _216_
*604 _217_
*605 _218_
*606 _219_
*607 _220_
*608 _221_
*609 _222_
*610 _223_
*611 _224_
*612 _225_
*613 _226_
*614 _227_
*615 _228_
*616 _229_
*617 _230_
*618 _231_
*619 _232_
*620 _233_
*621 _234_
*622 _235_
*623 _236_
*624 _237_
*625 _238_
*626 _239_
*627 _240_
*628 _241_
*629 _242_
*630 _243_
*631 _244_
*632 _245_
*633 _246_
*634 _247_
*635 _248_
*636 _249_
*637 _250_
*638 _251_
*639 _252_
*640 _253_
*641 _254_
*642 _255_
*643 _256_
*644 _257_
*645 _258_
*646 _259_
*647 _260_
*648 _261_
*649 _262_
*650 _263_
*651 _264_
*652 _265_
*653 _266_
*654 _267_
*655 _268_
*656 _269_
*657 _270_
*658 _271_
*659 _272_
*660 _273_
*661 _274_
*662 _275_
*663 _276_
*664 _277_
*665 _278_
*666 _279_
*667 _280_
*668 _281_
*669 _282_
*670 _283_
*671 _284_
*672 _285_
*673 _286_
*674 _287_
*675 _288_
*676 _289_
*677 _290_
*678 _291_
*679 _292_
*680 _293_
*681 _294_
*682 _295_
*683 _296_
*684 _297_
*685 _298_
*686 _299_
*687 _300_
*688 _301_
*689 _302_
*690 _303_
*691 _304_
*692 _305_
*693 _306_
*694 _307_
*695 _308_
*696 _309_
*697 _310_
*698 _311_
*699 _312_
*700 _313_
*701 _314_
*702 _315_
*703 _316_
*704 _317_
*705 _318_
*706 _319_
*707 _320_
*708 _321_
*709 _322_
*710 _323_
*711 _324_
*712 _325_
*713 _326_
*714 _327_
*715 _328_
*716 _329_
*717 _330_
*718 _331_
*719 _332_
*720 _333_
*721 _334_
*722 _335_
*723 _336_
*724 _337_
*725 _338_
*726 _339_
*727 _340_
*728 _341_
*729 _342_
*730 _343_
*731 _344_
*732 _345_
*733 _346_
*734 _347_
*735 _348_
*736 _349_
*737 _350_
*738 _351_
*739 _352_
*740 _353_
*741 _354_
*742 _355_
*743 _356_
*744 _357_
*745 _358_
*746 _359_
*747 _360_
*748 _361_
*749 _362_
*750 _363_
*751 _364_
*752 _365_
*753 _366_
*754 _367_
*755 clone1
*756 clone2
*757 fanout35
*758 fanout36
*759 fanout37
*760 fanout38
*761 fanout39
*762 fanout40
*763 fanout41
*764 fanout42
*765 fanout43
*766 fanout44
*767 input1
*768 input10
*769 input11
*770 input12
*771 input13
*772 input14
*773 input15
*774 input16
*775 input17
*776 input18
*777 input19
*778 input2
*779 input20
*780 input3
*781 input4
*782 input5
*783 input6
*784 input7
*785 input8
*786 input9
*787 max_cap33
*788 max_cap34
*789 output21
*790 output22
*791 output23
*792 output24
*793 output25
*794 output26
*795 output27
*796 output28
*797 output29
*798 output30
*799 output31
*800 output32
*801 rebuffer3

*PORTS
a[0] I
a[1] I
a[2] I
a[3] I
a[4] I
a[5] I
a[6] I
a[7] I
b[0] I
b[1] I
b[2] I
b[3] I
b[4] I
b[5] I
b[6] I
b[7] I
carry_out O
negative O
op[0] I
op[1] I
op[2] I
op[3] I
overflow O
y[0] O
y[1] O
y[2] O
y[3] O
y[4] O
y[5] O
y[6] O
y[7] O
zero O

*D_NET *3 0.00140002
*CONN
*P a[0] I
*I *767:A I *D sky130_fd_sc_hd__clkbuf_2
*CAP
1 a[0] 0.000601526
2 *767:A 0
3 *3:9 0.000601526
4 *3:9 *778:A 0
5 *3:9 *786:A 0
6 *3:9 *7:15 9.84851e-05
7 *3:9 *224:8 0
8 *3:9 *255:8 9.84851e-05
9 *3:9 *259:10 0
*RES
1 a[0] *3:9 27.9671 
2 *3:9 *767:A 23 
*END

*D_NET *4 0.000901682
*CONN
*P a[1] I
*I *778:A I *D sky130_fd_sc_hd__buf_2
*CAP
1 a[1] 0.000450841
2 *778:A 0.000450841
3 *3:9 *778:A 0
*RES
1 a[1] *778:A 47.3214 
*END

*D_NET *5 0.00143815
*CONN
*P a[2] I
*I *780:A I *D sky130_fd_sc_hd__clkbuf_2
*CAP
1 a[2] 0.000463944
2 *780:A 0
3 *5:13 0.000463944
4 *5:13 y[1] 5.99691e-05
5 *5:13 *769:A 2.79122e-05
6 *5:13 *781:A 0
7 *5:13 *793:A 9.75779e-05
8 *5:13 *27:12 2.64616e-05
9 *5:13 *28:10 0
10 *5:13 *170:10 7.29386e-05
11 *5:13 *231:16 0.000225399
*RES
1 a[2] *5:13 27.6538 
2 *5:13 *780:A 23 
*END

*D_NET *6 0.000539306
*CONN
*P a[3] I
*I *781:A I *D sky130_fd_sc_hd__clkbuf_1
*CAP
1 a[3] 0.00025903
2 *781:A 0.00025903
3 *781:A *769:A 2.12457e-05
4 *781:A *170:10 0
5 *5:13 *781:A 0
*RES
1 a[3] *781:A 47.7832 
*END

*D_NET *7 0.00260848
*CONN
*P a[4] I
*I *782:A I *D sky130_fd_sc_hd__buf_1
*CAP
1 a[4] 0.000897573
2 *782:A 0
3 *7:15 0.000897573
4 *7:15 *786:A 0
5 *7:15 *12:15 0
6 *7:15 *70:14 4.77213e-05
7 *7:15 *213:10 5.50106e-05
8 *7:15 *244:97 0.000165995
9 *7:15 *244:105 3.36638e-05
10 *7:15 *244:113 6.70363e-05
11 *7:15 *251:130 0.00016551
12 *7:15 *255:8 8.99287e-05
13 *7:15 *255:23 8.99875e-05
14 *3:9 *7:15 9.84851e-05
*RES
1 a[4] *7:15 36.025 
2 *7:15 *782:A 23 
*END

*D_NET *8 0.00102135
*CONN
*P a[5] I
*I *783:A I *D sky130_fd_sc_hd__clkbuf_2
*CAP
1 a[5] 0.000421552
2 *783:A 0.000421552
3 *783:A *12:15 2.4754e-05
4 *783:A *235:119 5.50106e-05
5 *783:A *244:113 9.84851e-05
*RES
1 a[5] *783:A 47.4457 
*END

*D_NET *9 0.000556779
*CONN
*P a[6] I
*I *784:A I *D sky130_fd_sc_hd__clkbuf_2
*CAP
1 a[6] 0.000233515
2 *784:A 0.000233515
3 *784:A *785:A 8.97484e-05
*RES
1 a[6] *784:A 47.2507 
*END

*D_NET *10 0.0007237
*CONN
*P a[7] I
*I *785:A I *D sky130_fd_sc_hd__buf_1
*CAP
1 a[7] 0.000316976
2 *785:A 0.000316976
3 *784:A *785:A 8.97484e-05
*RES
1 a[7] *785:A 49.2777 
*END

*D_NET *11 0.0011018
*CONN
*P b[0] I
*I *786:A I *D sky130_fd_sc_hd__buf_4
*CAP
1 b[0] 0.000511033
2 *786:A 0.000511033
3 *786:A *46:10 2.30292e-05
4 *786:A *259:10 5.67058e-05
5 *3:9 *786:A 0
6 *7:15 *786:A 0
*RES
1 b[0] *786:A 48.8957 
*END

*D_NET *12 0.00210714
*CONN
*P b[1] I
*I *768:A I *D sky130_fd_sc_hd__clkbuf_2
*CAP
1 b[1] 0.000598346
2 *768:A 0
3 *12:15 0.000598346
4 *12:15 *645:A2 0.000484551
5 *12:15 *686:A0 8.6949e-05
6 *12:15 *224:88 1.68817e-05
7 *12:15 *235:119 0.000141954
8 *12:15 *244:113 0.000155354
9 *783:A *12:15 2.4754e-05
10 *7:15 *12:15 0
*RES
1 b[1] *12:15 31.6543 
2 *12:15 *768:A 23 
*END

*D_NET *13 0.000618748
*CONN
*P b[2] I
*I *769:A I *D sky130_fd_sc_hd__clkbuf_1
*CAP
1 b[2] 0.000284795
2 *769:A 0.000284795
3 *781:A *769:A 2.12457e-05
4 *5:13 *769:A 2.79122e-05
*RES
1 b[2] *769:A 49.8062 
*END

*D_NET *14 0.000653964
*CONN
*P b[3] I
*I *770:A I *D sky130_fd_sc_hd__buf_1
*CAP
1 b[3] 0.000300736
2 *770:A 0
3 *14:17 0.000300736
4 *14:17 y[4] 2.12457e-05
5 *14:17 *772:A 3.12475e-05
6 *14:17 *246:33 0
*RES
1 b[3] *14:17 27.1584 
2 *14:17 *770:A 23 
*END

*D_NET *15 0.00121814
*CONN
*P b[4] I
*I *771:A I *D sky130_fd_sc_hd__buf_1
*CAP
1 b[4] 0.00060907
2 *771:A 0
3 *15:9 0.00060907
*RES
1 b[4] *15:9 28.4436 
2 *15:9 *771:A 23 
*END

*D_NET *16 0.000926873
*CONN
*P b[5] I
*I *772:A I *D sky130_fd_sc_hd__buf_1
*CAP
1 b[5] 0.000394059
2 *772:A 0.000394059
3 *772:A y[2] 0
4 *772:A y[3] 1.5289e-05
5 *772:A y[4] 0
6 *772:A *569:A 1.14452e-05
7 *772:A *29:14 1.59585e-05
8 *772:A *175:10 0
9 *772:A *246:33 6.48142e-05
10 *14:17 *772:A 3.12475e-05
*RES
1 b[5] *772:A 49.4494 
*END

*D_NET *17 0.00113466
*CONN
*P b[6] I
*I *773:A I *D sky130_fd_sc_hd__buf_1
*CAP
1 b[6] 0.000567331
2 *773:A 0
3 *17:9 0.000567331
4 *17:9 y[0] 0
5 *17:9 zero 0
6 *17:9 *238:8 0
*RES
1 b[6] *17:9 27.4907 
2 *17:9 *773:A 23 
*END

*D_NET *18 0.000776027
*CONN
*P b[7] I
*I *774:A I *D sky130_fd_sc_hd__buf_1
*CAP
1 b[7] 0.000347509
2 *774:A 0.000347509
3 *774:A carry_out 0
4 *774:A *21:13 7.82427e-05
5 *774:A *188:25 0
6 *774:A *220:14 2.76611e-06
*RES
1 b[7] *774:A 49.2777 
*END

*D_NET *19 0.000718525
*CONN
*P carry_out O
*I *789:X O *D sky130_fd_sc_hd__buf_2
*CAP
1 carry_out 0.000294025
2 *789:X 0.000294025
3 carry_out overflow 8.82201e-05
4 carry_out *753:A2 0
5 carry_out *226:10 4.2255e-05
6 *774:A carry_out 0
*RES
1 *789:X carry_out 48.6592 
*END

*D_NET *20 0.00109099
*CONN
*P negative O
*I *790:X O *D sky130_fd_sc_hd__buf_2
*CAP
1 negative 0.000545493
2 *790:X 0.000545493
3 negative *33:10 0
*RES
1 *790:X negative 49.9107 
*END

*D_NET *21 0.00090863
*CONN
*P op[0] I
*I *775:A I *D sky130_fd_sc_hd__buf_1
*CAP
1 op[0] 0.000378102
2 *775:A 0
3 *21:13 0.000378102
4 *21:13 *777:A 7.41825e-05
5 *21:13 *221:10 0
6 *774:A *21:13 7.82427e-05
*RES
1 op[0] *21:13 27.8697 
2 *21:13 *775:A 23 
*END

*D_NET *22 0.00141614
*CONN
*P op[1] I
*I *776:A I *D sky130_fd_sc_hd__clkbuf_2
*CAP
1 op[1] 0.000445886
2 *776:A 0
3 *22:11 0.000445886
4 *22:11 *777:A 0.000170041
5 *22:11 *779:A 8.73764e-05
6 *22:11 *222:8 0.00020395
7 *22:11 *222:14 6.29985e-05
*RES
1 op[1] *22:11 30.9414 
2 *22:11 *776:A 23 
*END

*D_NET *23 0.00061362
*CONN
*P op[2] I
*I *777:A I *D sky130_fd_sc_hd__dlymetal6s2s_1
*CAP
1 op[2] 0.000184698
2 *777:A 0.000184698
3 *21:13 *777:A 7.41825e-05
4 *22:11 *777:A 0.000170041
*RES
1 op[2] *777:A 47.8691 
*END

*D_NET *24 0.000501454
*CONN
*P op[3] I
*I *779:A I *D sky130_fd_sc_hd__dlymetal6s2s_1
*CAP
1 op[3] 0.000207039
2 *779:A 0.000207039
3 *779:A *223:16 0
4 *22:11 *779:A 8.73764e-05
*RES
1 op[3] *779:A 47.1648 
*END

*D_NET *25 0.000557061
*CONN
*P overflow O
*I *791:X O *D sky130_fd_sc_hd__buf_2
*CAP
1 overflow 0.00023442
2 *791:X 0.00023442
3 overflow *735:B 0
4 carry_out overflow 8.82201e-05
*RES
1 *791:X overflow 47.2507 
*END

*D_NET *26 0.00108385
*CONN
*P y[0] O
*I *792:X O *D sky130_fd_sc_hd__buf_2
*CAP
1 y[0] 0.000541925
2 *792:X 0.000541925
3 y[0] *32:8 0
4 *17:9 y[0] 0
*RES
1 *792:X y[0] 49.9107 
*END

*D_NET *27 0.00144159
*CONN
*P y[1] O
*I *793:X O *D sky130_fd_sc_hd__buf_2
*CAP
1 y[1] 0.000107832
2 *793:X 0.000362945
3 *27:12 0.000470776
4 y[1] y[2] 5.99691e-05
5 *27:12 *28:10 0.000324818
6 *27:12 *231:16 2.88215e-05
7 *5:13 y[1] 5.99691e-05
8 *5:13 *27:12 2.64616e-05
*RES
1 *793:X *27:12 45.8196 
2 *27:12 y[1] 8.58613 
*END

*D_NET *28 0.00167887
*CONN
*P y[2] O
*I *794:X O *D sky130_fd_sc_hd__buf_2
*CAP
1 y[2] 0.000160664
2 *794:X 0.000475753
3 *28:10 0.000636418
4 y[2] y[3] 2.12457e-05
5 y[2] *29:14 0
6 *28:10 *170:10 0
7 y[1] y[2] 5.99691e-05
8 *772:A y[2] 0
9 *5:13 *28:10 0
10 *27:12 *28:10 0.000324818
*RES
1 *794:X *28:10 47.5182 
2 *28:10 y[2] 8.672 
*END

*D_NET *29 0.000678043
*CONN
*P y[3] O
*I *795:X O *D sky130_fd_sc_hd__buf_2
*CAP
1 y[3] 7.67726e-05
2 *795:X 0.000236002
3 *29:14 0.000312775
4 y[2] y[3] 2.12457e-05
5 y[2] *29:14 0
6 *772:A y[3] 1.5289e-05
7 *772:A *29:14 1.59585e-05
*RES
1 *795:X *29:14 49.9 
2 *29:14 y[3] 0.382667 
*END

*D_NET *30 0.000523515
*CONN
*P y[4] O
*I *796:X O *D sky130_fd_sc_hd__buf_2
*CAP
1 y[4] 0.00024834
2 *796:X 0.00024834
3 y[4] *675:B 5.58873e-06
4 *772:A y[4] 0
5 *14:17 y[4] 2.12457e-05
*RES
1 *796:X y[4] 47.1648 
*END

*D_NET *31 0.00108385
*CONN
*P y[5] O
*I *797:X O *D sky130_fd_sc_hd__buf_2
*CAP
1 y[5] 0.000541925
2 *797:X 0.000541925
3 y[5] *32:8 0
*RES
1 *797:X y[5] 49.9107 
*END

*D_NET *32 0.00112559
*CONN
*P y[6] O
*I *798:X O *D sky130_fd_sc_hd__buf_2
*CAP
1 y[6] 6.5784e-05
2 *798:X 0.000497011
3 *32:8 0.000562795
4 y[0] *32:8 0
5 y[5] *32:8 0
*RES
1 *798:X *32:8 48.8854 
2 *32:8 y[6] 1.50179 
*END

*D_NET *33 0.00127381
*CONN
*P y[7] O
*I *799:X O *D sky130_fd_sc_hd__buf_2
*CAP
1 y[7] 8.66535e-05
2 *799:X 0.000550251
3 *33:10 0.000636904
4 *33:10 zero 0
5 negative *33:10 0
*RES
1 *799:X *33:10 49.5068 
2 *33:10 y[7] 1.97821 
*END

*D_NET *34 0.00132127
*CONN
*P zero O
*I *800:X O *D sky130_fd_sc_hd__buf_6
*CAP
1 zero 0.000597198
2 *800:X 6.34361e-05
3 *34:8 0.000660634
4 *17:9 zero 0
5 *33:10 zero 0
*RES
1 *800:X *34:8 39.0979 
2 *34:8 zero 13.0914 
*END

*D_NET *35 0.00128292
*CONN
*I *634:D_N I *D sky130_fd_sc_hd__or4b_1
*I *633:X O *D sky130_fd_sc_hd__or4_1
*CAP
1 *634:D_N 0.000308756
2 *633:X 6.34174e-05
3 *35:8 0.000372174
4 *634:D_N *43:12 0.000242754
5 *634:D_N *209:10 0
6 *634:D_N *257:75 9.17998e-05
7 *35:8 *242:72 0.000139766
8 *35:8 *249:8 6.42505e-05
*RES
1 *633:X *35:8 39.9057 
2 *35:8 *634:D_N 43.8829 
*END

*D_NET *36 0.00343153
*CONN
*I *635:B1 I *D sky130_fd_sc_hd__a31o_1
*I *634:X O *D sky130_fd_sc_hd__or4b_1
*CAP
1 *635:B1 0
2 *634:X 0.000264328
3 *36:12 0.00055608
4 *36:8 0.000820408
5 *36:8 *199:16 0.000303448
6 *36:12 *41:22 2.26497e-05
7 *36:12 *55:8 2.11827e-05
8 *36:12 *81:27 0.000585426
9 *36:12 *147:12 0.000166532
10 *36:12 *204:14 4.65912e-05
11 *36:12 *207:52 0
12 *36:12 *243:34 8.4047e-05
13 *36:12 *250:139 0.000327296
14 *36:12 *257:58 0.000109377
15 *36:12 *258:37 4.93359e-05
16 *36:12 *258:48 7.48331e-05
17 *36:12 *258:67 0
*RES
1 *634:X *36:8 41.48 
2 *36:8 *36:12 28.1743 
3 *36:12 *635:B1 23 
*END

*D_NET *37 0.000679046
*CONN
*I *637:B I *D sky130_fd_sc_hd__or2_1
*I *636:X O *D sky130_fd_sc_hd__mux2_1
*CAP
1 *637:B 0
2 *636:X 0.000106556
3 *37:10 0.000106556
4 *37:10 *636:A1 0.000114957
5 *37:10 *84:10 5.50106e-05
6 *37:10 *199:56 7.70038e-05
7 *37:10 *250:65 0.000218962
*RES
1 *636:X *37:10 41.5836 
2 *37:10 *637:B 38 
*END

*D_NET *38 0.00220499
*CONN
*I *642:A2 I *D sky130_fd_sc_hd__a31o_1
*I *637:X O *D sky130_fd_sc_hd__or2_1
*CAP
1 *642:A2 0
2 *637:X 0.000455403
3 *38:10 0.000455403
4 *38:10 *84:10 2.3529e-05
5 *38:10 *86:10 0.000163361
6 *38:10 *195:48 0.000341418
7 *38:10 *195:61 9.58714e-05
8 *38:10 *205:53 0
9 *38:10 *211:8 0.000263998
10 *38:10 *212:10 6.07018e-05
11 *38:10 *250:63 0.000345304
*RES
1 *637:X *38:10 49.455 
2 *38:10 *642:A2 38 
*END

*D_NET *39 0.00023505
*CONN
*I *742:B1 I *D sky130_fd_sc_hd__a211o_1
*I *638:X O *D sky130_fd_sc_hd__and2_1
*CAP
1 *742:B1 9.66099e-05
2 *638:X 9.66099e-05
3 *742:B1 *654:B 2.81066e-05
4 *742:B1 *742:A2 1.37232e-05
*RES
1 *638:X *742:B1 47.595 
*END

*D_NET *40 0.00216189
*CONN
*I *660:A1 I *D sky130_fd_sc_hd__o21a_1
*I *642:B1 I *D sky130_fd_sc_hd__a31o_1
*I *639:X O *D sky130_fd_sc_hd__and3_1
*CAP
1 *660:A1 0
2 *642:B1 0
3 *639:X 0.000207535
4 *40:20 8.79959e-05
5 *40:14 0.000185831
6 *40:10 0.00030537
7 *40:10 *631:B 2.35393e-05
8 *40:10 *204:14 0.00026282
9 *40:10 *206:22 0.000215791
10 *40:10 *239:8 9.41704e-05
11 *40:14 *628:B1_N 5.3304e-05
12 *40:14 *659:B 6.08617e-05
13 *40:14 *195:8 0.000222953
14 *40:14 *208:10 1.21972e-05
15 *40:20 *631:A 0.000215226
16 *40:20 *195:38 0.000214296
*RES
1 *639:X *40:10 42.7643 
2 *40:10 *40:14 17.5271 
3 *40:14 *40:20 32.9621 
4 *40:20 *642:B1 23 
5 *40:14 *660:A1 23 
*END

*D_NET *41 0.00258528
*CONN
*I *682:B I *D sky130_fd_sc_hd__nor2_1
*I *641:B I *D sky130_fd_sc_hd__nand2_1
*I *640:Y O *D sky130_fd_sc_hd__nand3b_1
*CAP
1 *682:B 0
2 *641:B 0
3 *640:Y 1.42646e-05
4 *41:33 0.000131045
5 *41:22 0.000464953
6 *41:6 0.000610263
7 *41:6 *640:A_N 5.50106e-05
8 *41:6 *243:41 2.32101e-05
9 *41:22 *616:S 5.56279e-05
10 *41:22 *640:A_N 9.41704e-05
11 *41:22 *682:A 3.7669e-05
12 *41:22 *43:8 2.33476e-05
13 *41:22 *81:27 2.05503e-05
14 *41:22 *213:90 0.000114797
15 *41:22 *243:41 2.02872e-05
16 *41:22 *250:139 0.000672661
17 *41:22 *257:75 2.5343e-05
18 *41:33 *739:B2 6.38845e-05
19 *41:33 *81:27 0.000135547
20 *36:12 *41:22 2.26497e-05
*RES
1 *640:Y *41:6 23.6214 
2 *41:6 *41:22 49.084 
3 *41:22 *641:B 23 
4 *41:6 *41:33 32.61 
5 *41:33 *682:B 23 
*END

*D_NET *42 0.000301098
*CONN
*I *642:A3 I *D sky130_fd_sc_hd__a31o_1
*I *641:Y O *D sky130_fd_sc_hd__nand2_1
*CAP
1 *642:A3 0.000104141
2 *641:Y 0.000104141
3 *642:A3 *616:S 6.34418e-05
4 *642:A3 *210:12 2.93747e-05
*RES
1 *641:Y *642:A3 48.0507 
*END

*D_NET *43 0.00754526
*CONN
*I *715:A2 I *D sky130_fd_sc_hd__a21o_1
*I *658:A2 I *D sky130_fd_sc_hd__a211o_1
*I *642:X O *D sky130_fd_sc_hd__a31o_1
*CAP
1 *715:A2 0
2 *658:A2 0.000112405
3 *642:X 0.000153643
4 *43:29 0.000713682
5 *43:12 0.00168051
6 *43:8 0.00100806
7 *658:A2 *649:A3 0.000236509
8 *658:A2 *658:A1 5.56279e-05
9 *658:A2 *658:B1 4.67488e-05
10 *658:A2 *248:76 1.5259e-05
11 *43:8 *199:50 3.33144e-05
12 *43:8 *210:12 1.14452e-05
13 *43:8 *211:8 9.82481e-05
14 *43:8 *257:75 8.3418e-05
15 *43:12 *618:A_N 4.62412e-05
16 *43:12 *618:B 1.28818e-05
17 *43:12 *649:A3 0.000353638
18 *43:12 *669:A1 5.50049e-05
19 *43:12 *669:B1 0.000113188
20 *43:12 *69:12 0.00014196
21 *43:12 *198:21 0.000137651
22 *43:12 *199:16 4.08664e-05
23 *43:12 *199:20 0.000221992
24 *43:12 *224:75 2.32101e-05
25 *43:12 *235:82 8.48502e-06
26 *43:12 *235:171 0.000106571
27 *43:12 *248:76 2.43944e-05
28 *43:12 *251:60 4.37513e-05
29 *43:29 *71:14 0.000392276
30 *43:29 *204:48 0
31 *43:29 *210:45 0.000271906
32 *43:29 *235:55 0.000398664
33 *43:29 *235:74 1.22803e-05
34 *43:29 *248:57 1.51581e-05
35 *43:29 *251:60 5.79416e-05
36 *43:29 *256:41 0.00055223
37 *634:D_N *43:12 0.000242754
38 *41:22 *43:8 2.33476e-05
*RES
1 *642:X *43:8 41.3143 
2 *43:8 *43:12 33.2493 
3 *43:12 *658:A2 26.0243 
4 *43:12 *43:29 46.53 
5 *43:29 *715:A2 23 
*END

*D_NET *44 0.000330347
*CONN
*I *644:A2 I *D sky130_fd_sc_hd__a211o_1
*I *643:Y O *D sky130_fd_sc_hd__nand2b_1
*CAP
1 *644:A2 4.44022e-05
2 *643:Y 4.44022e-05
3 *644:A2 *565:A 0.000140927
4 *644:A2 *643:A_N 5.56279e-05
5 *644:A2 *205:45 4.49877e-05
*RES
1 *643:Y *644:A2 47.5743 
*END

*D_NET *45 0.00119753
*CONN
*I *711:B I *D sky130_fd_sc_hd__nor2_1
*I *647:A1 I *D sky130_fd_sc_hd__a21oi_1
*I *644:X O *D sky130_fd_sc_hd__a211o_1
*CAP
1 *711:B 0
2 *647:A1 0.000267639
3 *644:X 0
4 *45:17 9.18185e-05
5 *45:4 0.000359457
6 *647:A1 *565:A 0.000272372
7 *647:A1 *647:A2 1.46205e-05
8 *647:A1 *248:84 5.50106e-05
9 *45:17 *618:A_N 0.000136609
*RES
1 *644:X *45:4 23 
2 *45:4 *647:A1 26.9564 
3 *45:4 *45:17 31.9057 
4 *45:17 *711:B 23 
*END

*D_NET *46 0.00179519
*CONN
*I *646:B I *D sky130_fd_sc_hd__nand2_1
*I *645:X O *D sky130_fd_sc_hd__mux4_1
*CAP
1 *646:B 0
2 *645:X 0.000644701
3 *46:10 0.000644701
4 *46:10 *244:97 0.000135313
5 *46:10 *251:130 0
6 *46:10 *252:25 9.19765e-05
7 *46:10 *255:23 9.04492e-05
8 *46:10 *256:18 9.36449e-05
9 *46:10 *256:37 7.13714e-05
10 *46:10 *259:10 0
11 *786:A *46:10 2.30292e-05
*RES
1 *645:X *46:10 49.9314 
2 *46:10 *646:B 38 
*END

*D_NET *47 0.0011377
*CONN
*I *647:A2 I *D sky130_fd_sc_hd__a21oi_1
*I *646:Y O *D sky130_fd_sc_hd__nand2_1
*CAP
1 *647:A2 6.78419e-05
2 *646:Y 0.000249089
3 *47:10 0.000316931
4 *647:A2 *643:A_N 0
5 *647:A2 *205:45 9.77405e-05
6 *647:A2 *248:84 6.17437e-06
7 *47:10 *48:10 2.36182e-05
8 *47:10 *71:14 5.62433e-06
9 *47:10 *213:40 0.00023506
10 *47:10 *256:37 0
11 *47:10 *259:56 0.000120999
12 *647:A1 *647:A2 1.46205e-05
*RES
1 *646:Y *47:10 42.4329 
2 *47:10 *647:A2 39.595 
*END

*D_NET *48 0.00224972
*CONN
*I *658:B1 I *D sky130_fd_sc_hd__a211o_1
*I *647:Y O *D sky130_fd_sc_hd__a21oi_1
*CAP
1 *658:B1 6.42746e-05
2 *647:Y 0.000315697
3 *48:18 0.000300981
4 *48:10 0.000552403
5 *658:B1 *248:76 0.00013269
6 *48:10 *71:14 0
7 *48:10 *205:45 0.000138321
8 *48:10 *242:57 0
9 *48:10 *248:84 4.9858e-05
10 *48:10 *256:37 0
11 *48:18 *58:10 0.000133316
12 *48:18 *71:14 0.00026599
13 *48:18 *224:56 0
14 *48:18 *242:57 0.000138607
15 *48:18 *248:84 8.72173e-05
16 *658:A2 *658:B1 4.67488e-05
17 *47:10 *48:10 2.36182e-05
*RES
1 *647:Y *48:10 42.5364 
2 *48:10 *48:18 35.2407 
3 *48:18 *658:B1 39.595 
*END

*D_NET *49 0.000884179
*CONN
*I *657:B I *D sky130_fd_sc_hd__or3b_1
*I *648:X O *D sky130_fd_sc_hd__o21a_1
*CAP
1 *657:B 0
2 *648:X 0.000257892
3 *49:10 0.000257892
4 *49:10 *224:56 0.000140355
5 *49:10 *247:100 0.000131538
6 *49:10 *251:52 9.65021e-05
*RES
1 *648:X *49:10 43.1164 
2 *49:10 *657:B 38 
*END

*D_NET *50 0.000662926
*CONN
*I *657:C_N I *D sky130_fd_sc_hd__or3b_1
*I *649:X O *D sky130_fd_sc_hd__o32a_1
*CAP
1 *657:C_N 0
2 *649:X 0.000148561
3 *50:10 0.000148561
4 *50:10 *224:56 0.000166513
5 *50:10 *247:100 3.0538e-05
6 *50:10 *256:37 0.000168754
*RES
1 *649:X *50:10 41.3557 
2 *50:10 *657:C_N 38 
*END

*D_NET *51 0.000572232
*CONN
*I *656:A1 I *D sky130_fd_sc_hd__a32o_1
*I *650:X O *D sky130_fd_sc_hd__or2_1
*CAP
1 *656:A1 0
2 *650:X 0.000127822
3 *51:10 0.000127822
4 *51:10 *587:B 1.94693e-05
5 *51:10 *167:8 0.000110913
6 *51:10 *246:10 2.60152e-05
7 *51:10 *251:43 0.000160191
*RES
1 *650:X *51:10 40.8793 
2 *51:10 *656:A1 38 
*END

*D_NET *52 0.0189345
*CONN
*I *745:B2 I *D sky130_fd_sc_hd__a221o_1
*I *724:C1 I *D sky130_fd_sc_hd__o311a_1
*I *705:A1 I *D sky130_fd_sc_hd__a211o_1
*I *656:A2 I *D sky130_fd_sc_hd__a32o_1
*I *673:B2 I *D sky130_fd_sc_hd__a22o_1
*I *651:Y O *D sky130_fd_sc_hd__nor2_2
*CAP
1 *745:B2 0
2 *724:C1 4.55901e-05
3 *705:A1 0.000164778
4 *656:A2 0.000406505
5 *673:B2 1.70805e-05
6 *651:Y 0.000124201
7 *52:102 0.000900277
8 *52:77 0.00316278
9 *52:52 0.00372489
10 *52:29 0.00201561
11 *52:14 0.00162571
12 *52:12 0.00146692
13 *656:A2 *649:B2 0.000148688
14 *656:A2 *206:73 1.22906e-05
15 *656:A2 *210:51 0.000242061
16 *656:A2 *230:10 0.000191491
17 *656:A2 *230:33 0.000450183
18 *656:A2 *256:37 0.000175061
19 *673:B2 *673:B1 1.8788e-05
20 *705:A1 *55:93 1.74299e-05
21 *705:A1 *55:97 5.09072e-05
22 *705:A1 *94:10 4.6318e-06
23 *705:A1 *244:53 0
24 *724:C1 *724:B1 9.28078e-06
25 *724:C1 *734:A1 1.24585e-05
26 *724:C1 *185:19 1.05441e-05
27 *52:12 *639:C 0
28 *52:12 *651:B 0
29 *52:12 *207:52 7.44354e-05
30 *52:12 *239:8 7.39261e-05
31 *52:12 *250:139 3.22879e-05
32 *52:14 *631:B 4.95081e-05
33 *52:14 *631:C 6.58253e-05
34 *52:14 *639:C 0.000249704
35 *52:14 *673:A2 0.000580631